#======================================================================

# CRYSTAL DATA

#----------------------------------------------------------------------

data_VESTA_phase_1


_pd_phase_name                         'grapheneVopt\(2)                      '
_cell_length_a                         7.38000
_cell_length_b                         7.38000
_cell_length_c                         10.00000
_cell_angle_alpha                      90
_cell_angle_beta                       90
_cell_angle_gamma                      60.00000
_symmetry_space_group_name_H-M         'P 1'
_symmetry_Int_Tables_number            1

loop_
_symmetry_equiv_pos_as_xyz
   'x, y, z'

loop_
   _atom_site_label
   _atom_site_occupancy
   _atom_site_fract_x
   _atom_site_fract_y
   _atom_site_fract_z
   _atom_site_adp_type
   _atom_site_B_iso_or_equiv
   _atom_site_type_symbol
   C1         1.0     0.000060      0.000060      0.000000     Biso  1.000000 C
   C2         1.0     0.111050      0.111060      0.000000     Biso  1.000000 C
   C3         1.0     0.000060      0.333230      0.000000     Biso  1.000000 C
   C4         1.0     0.111140      0.444440      0.000000     Biso  1.000000 C
   C5         1.0     0.999970      0.666670      0.000000     Biso  1.000000 C
   C6         1.0     0.111050      0.777880      0.000000     Biso  1.000000 C
   C7         1.0     0.333380      0.666560      0.000000     Biso  1.000000 C
   C8         1.0     0.444550      0.777730      0.000000     Biso  1.000000 C
   C9         1.0     0.333230      0.000060      0.000000     Biso  1.000000 C
   C10        1.0     0.444440      0.111140      0.000000     Biso  1.000000 C
   C11        1.0     0.333370      0.333380      0.000000     Biso  1.000000 C
   C12        1.0     0.444430      0.444430      0.000000     Biso  1.000000 C
   C13        1.0     0.666560      0.333380      0.000000     Biso  1.000000 C
   C14        1.0     0.777730      0.444550      0.000000     Biso  1.000000 C
   C15        1.0     0.666680      0.666680      0.000000     Biso  1.000000 C
   C16        1.0     0.777730      0.777740      0.000000     Biso  1.000000 C
   C17        1.0     0.666670      0.999970      0.000000     Biso  1.000000 C
   C18        1.0     0.777880      0.111050      0.000000     Biso  1.000000 C
   C19        1.0     0.449265      0.424231      0.379606     Biso  1.000000 C
   C20        1.0     0.667855      0.315271      0.377671     Biso  1.000000 C
   C21        1.0     0.777072      0.424642      0.375850     Biso  1.000000 C
   C22        1.0     0.667687      0.643268      0.375401     Biso  1.000000 C
   C23        1.0     0.449083      0.752279      0.375690     Biso  1.000000 C
   C24        1.0     0.339982      0.642793      0.377638     Biso  1.000000 C
   H1         1.0     0.363993      0.338771      0.381852     Biso  1.000000 H
   H2         1.0     0.753740      0.144468      0.378553     Biso  1.000000 H
   H3         1.0     0.947889      0.339314      0.375666     Biso  1.000000 H
   H4         1.0     0.752799      0.728941      0.375010     Biso  1.000000 H
   H5         1.0     0.363338      0.923054      0.374864     Biso  1.000000 H
   H6         1.0     0.169182      0.728362      0.378651     Biso  1.000000 H
